Version 4
SHEET 1 880 680
WIRE -288 128 -336 128
WIRE 144 128 -288 128
WIRE -64 160 -176 160
WIRE 144 160 -64 160
WIRE 304 160 288 160
WIRE 304 176 304 160
WIRE 400 176 304 176
WIRE 48 192 -16 192
WIRE 144 192 48 192
WIRE -336 240 -336 128
WIRE -176 240 -176 160
WIRE -16 240 -16 192
WIRE -336 400 -336 320
WIRE -176 400 -176 320
WIRE -176 400 -336 400
WIRE -112 400 -176 400
WIRE -16 400 -16 320
WIRE -16 400 -112 400
WIRE -112 448 -112 400
FLAG -112 448 0
FLAG 400 176 VOUT
FLAG -64 160 VIN
FLAG -288 128 VCC
FLAG 48 192 VNN
SYMBOL voltage -336 224 R0
WINDOW 123 0 0 Left 0
WINDOW 39 0 0 Left 0
SYMATTR InstName VCC
SYMATTR Value 10
SYMBOL voltage -176 224 R0
WINDOW 123 24 124 Left 2
WINDOW 39 0 0 Left 0
SYMATTR Value2 AC 1 0
SYMATTR InstName VIN
SYMATTR Value SINE(0 100m 100 0 0 0 5)
SYMBOL voltage -16 224 R0
WINDOW 123 0 0 Left 0
WINDOW 39 0 0 Left 0
SYMATTR InstName VNN
SYMATTR Value -10
SYMBOL Lab6_Alex_Villalba 208 160 R0
SYMATTR InstName X1
TEXT -368 528 Left 2 !.include "C:\\Users\\villalba\\Downloads\\ECE 322\\Lab6\\lm324.sub"
TEXT -368 584 Left 2 ;.tran 0 50m
TEXT -368 616 Left 2 !.ac dec   100 10 10MEG
